Version 4
SHEET 1 1568 680
WIRE 880 -208 256 -208
WIRE 992 -208 960 -208
WIRE 1040 -208 992 -208
WIRE 1200 -208 1120 -208
WIRE 640 -128 480 -128
WIRE 832 -128 720 -128
WIRE -240 -96 -240 -208
WIRE -128 -96 -128 -208
WIRE 1088 -48 1088 -96
WIRE 480 -32 480 -128
WIRE 576 -32 480 -32
WIRE 688 -32 640 -32
WIRE 736 -32 688 -32
WIRE 832 -32 832 -128
WIRE 832 -32 800 -32
WIRE 880 -32 832 -32
WIRE 992 -32 992 -208
WIRE 992 -32 960 -32
WIRE 1056 -32 992 -32
WIRE 1200 -16 1200 -208
WIRE 1200 -16 1120 -16
WIRE 1376 -16 1200 -16
WIRE 1488 -16 1376 -16
WIRE 1056 0 1024 0
WIRE -240 16 -240 -16
WIRE -128 16 -128 -16
WIRE 1024 32 1024 0
WIRE 1376 32 1376 -16
WIRE 1088 64 1088 16
WIRE 608 128 608 80
WIRE 256 144 256 -208
WIRE 256 144 160 144
WIRE 304 144 256 144
WIRE 480 144 480 -32
WIRE 480 144 384 144
WIRE 576 144 480 144
WIRE 1376 144 1376 112
WIRE 1488 144 1376 144
WIRE 688 160 688 -32
WIRE 688 160 640 160
WIRE 1376 160 1376 144
WIRE 160 176 160 144
WIRE 576 176 544 176
WIRE 544 208 544 176
WIRE 608 240 608 192
WIRE 1376 272 1376 240
WIRE 160 288 160 256
FLAG -240 16 0
FLAG -128 16 0
FLAG -240 -208 VDD
FLAG -128 -208 VEE
FLAG 608 240 VEE
FLAG 608 80 VDD
FLAG 1088 64 VEE
FLAG 1088 -96 VDD
FLAG 544 208 0
FLAG 1024 32 0
FLAG 1488 -16 VO
FLAG 160 288 0
FLAG 160 144 VIN
FLAG 1376 272 0
FLAG 1488 144 VO/2
SYMBOL Hab_OpAmp\\TLV9351 608 96 R0
SYMATTR InstName U1
SYMBOL voltage -240 -112 R0
WINDOW 123 0 0 Left 0
WINDOW 39 0 0 Left 0
SYMATTR InstName V1
SYMATTR Value 15
SYMBOL voltage -128 -112 R0
WINDOW 123 0 0 Left 0
WINDOW 39 0 0 Left 0
SYMATTR InstName V2
SYMATTR Value -15
SYMBOL Hab_OpAmp\\TLV9351 1088 -80 R0
SYMATTR InstName U2
SYMBOL diode 640 -48 R90
WINDOW 0 0 32 VBottom 2
WINDOW 3 32 32 VTop 2
SYMATTR InstName D1
SYMATTR Value 1N4148
SYMBOL diode 800 -48 R90
WINDOW 0 0 32 VBottom 2
WINDOW 3 32 32 VTop 2
SYMATTR InstName D2
SYMATTR Value 1N4148
SYMBOL res 976 -48 R90
WINDOW 0 0 56 VBottom 2
WINDOW 3 32 56 VTop 2
SYMATTR InstName R1
SYMATTR Value 5K
SYMBOL res 1136 -224 R90
WINDOW 0 0 56 VBottom 2
WINDOW 3 32 56 VTop 2
SYMATTR InstName R2
SYMATTR Value 10K
SYMBOL res 736 -144 R90
WINDOW 0 0 56 VBottom 2
WINDOW 3 32 56 VTop 2
SYMATTR InstName R3
SYMATTR Value 10K
SYMBOL res 400 128 R90
WINDOW 0 0 56 VBottom 2
WINDOW 3 32 56 VTop 2
SYMATTR InstName R4
SYMATTR Value 10K
SYMBOL res 976 -224 R90
WINDOW 0 0 56 VBottom 2
WINDOW 3 32 56 VTop 2
SYMATTR InstName R5
SYMATTR Value 10K
SYMBOL voltage 160 160 R0
WINDOW 123 0 0 Left 0
WINDOW 39 0 0 Left 0
SYMATTR InstName V3
SYMATTR Value SINE(-5 1 5K .001 0 0 5)
SYMBOL res 1360 16 R0
SYMATTR InstName R6
SYMATTR Value 5K
SYMBOL res 1360 144 R0
SYMATTR InstName R7
SYMATTR Value 5K
TEXT -274 332 Left 2 !.tran .003
