Version 4
SHEET 1 2004 980
WIRE -432 64 -432 48
WIRE -48 64 -432 64
WIRE 224 64 -48 64
WIRE 320 64 224 64
WIRE 544 64 416 64
WIRE 640 64 640 48
WIRE 640 64 544 64
WIRE 1008 64 912 64
WIRE 1216 64 1104 64
WIRE 640 80 640 64
WIRE -48 96 -48 64
WIRE 224 96 224 64
WIRE 544 96 544 64
WIRE -432 128 -432 64
WIRE -48 192 -48 160
WIRE 48 192 48 160
WIRE 48 192 -48 192
WIRE 224 192 224 160
WIRE 224 192 48 192
WIRE 336 192 336 112
WIRE 336 192 224 192
WIRE 464 192 336 192
WIRE 544 192 544 160
WIRE 640 192 640 160
WIRE 640 192 544 192
WIRE 1024 192 1024 112
WIRE -432 224 -432 208
WIRE 336 224 336 192
WIRE 544 240 544 192
WIRE 336 336 336 304
WIRE 1024 624 928 624
WIRE 1232 624 1120 624
WIRE -432 640 -432 624
WIRE -48 640 -432 640
WIRE 224 640 -48 640
WIRE 320 640 224 640
WIRE 544 640 416 640
WIRE 640 640 640 624
WIRE 640 640 544 640
WIRE 640 656 640 640
WIRE -48 672 -48 640
WIRE 224 672 224 640
WIRE 544 672 544 640
WIRE -432 704 -432 640
WIRE 1040 752 1040 672
WIRE -48 768 -48 736
WIRE 48 768 48 736
WIRE 48 768 -48 768
WIRE 224 768 224 736
WIRE 224 768 48 768
WIRE 336 768 336 688
WIRE 336 768 224 768
WIRE 464 768 336 768
WIRE 544 768 544 736
WIRE 640 768 640 736
WIRE 640 768 544 768
WIRE -432 800 -432 784
WIRE 544 816 544 768
WIRE 336 848 336 768
WIRE 336 960 336 928
FLAG 336 336 0
FLAG 544 240 0
FLAG -432 224 0
FLAG -432 48 VIN+
FLAG 640 48 VO+
FLAG 464 192 VG_A
FLAG 912 64 VIN+
FLAG 1216 64 VO+
FLAG 1024 192 VG_A
FLAG 336 960 0
FLAG 544 816 0
FLAG -432 800 0
FLAG -432 624 VIN-
FLAG 640 624 VO-
FLAG 464 768 VG_B
FLAG 928 624 VIN-
FLAG 1232 624 VO-
FLAG 1040 752 VG_B
SYMBOL res 32 64 R0
SYMATTR InstName R1
SYMATTR Value 20K
SYMBOL res 320 208 R0
SYMATTR InstName R2
SYMATTR Value 47K
SYMBOL cap -64 96 R0
SYMATTR InstName C1
SYMATTR Value 10µ
SYMBOL cap 528 96 R0
SYMATTR InstName C2
SYMATTR Value 1000µ
SYMBOL voltage -432 112 R0
WINDOW 3 -439 50 Left 2
WINDOW 123 0 0 Left 0
WINDOW 39 0 0 Left 0
SYMATTR Value PULSE(0 20 10e-3 1e-5 1e-5 .5 1 2)
SYMATTR InstName V1
SYMBOL res 624 64 R0
SYMATTR InstName R3
SYMATTR Value 10K
SYMBOL Hab_Zener\\MMSZ5239BS 240 160 R180
WINDOW 0 24 64 Left 2
WINDOW 3 -94 122 Left 2
SYMATTR InstName U1
SYMBOL Hab_MOSFET_P\\DMP6050SPS-13 416 112 M270
WINDOW 3 106 -89 VRight 2
SYMATTR InstName U2
SYMBOL res 32 640 R0
SYMATTR InstName R4
SYMATTR Value 20K
SYMBOL res 320 832 R0
SYMATTR InstName R5
SYMATTR Value 47K
SYMBOL cap -64 672 R0
SYMATTR InstName C3
SYMATTR Value 10µ
SYMBOL cap 528 672 R0
SYMATTR InstName C4
SYMATTR Value 1000µ
SYMBOL voltage -432 800 R180
WINDOW 3 56 58 Left 2
WINDOW 123 0 0 Left 0
WINDOW 39 0 0 Left 0
SYMATTR Value PULSE(0 20 10e-3 1e-5 1e-5 .5 1 2)
SYMATTR InstName V2
SYMBOL res 624 640 R0
SYMATTR InstName R6
SYMATTR Value 10K
SYMBOL Hab_Zener\\MMSZ5239BS 208 672 R0
WINDOW 3 -81 -61 Left 2
SYMATTR InstName U3
SYMBOL Hab_MOSFET_N\\DMNH6042SPDQ-13 416 688 M270
WINDOW 3 111 -92 VRight 2
SYMATTR InstName U4
SYMBOL Hab_MOSFET_N\\DMNH6042SPDQ-13 1120 672 M270
WINDOW 3 111 -92 VRight 2
SYMATTR InstName U5
TEXT -632 -104 Left 2 !.tran 500E-3
TEXT -640 -320 Left 2 ;Current inrush limiter. Works with zener or resistor R1 in circuit.  \n \nWhen using Zener diode clamps the VGS so as not to exceed the max VGS of the PMOS\nWhen using R1 the VGs limit is set by voltage divider of R1 and R2\n \nIn either case the C1 and R2 work to slow the turn on of the PMOSFET\nCircuit also has the benefit of reverse voltage connection because of the PMOSFET body diode
TEXT 808 -48 Left 2 ;OPTIONAL: You can cascade the MOSFET to reduce \nthe total power (and in rush) they have to consume
TEXT 840 496 Left 2 ;OPTIONAL: You can cascade the MOSFET to reduce \nthe total power (and in rush) they have to consume
