Version 4
SHEET 1 1076 680
WIRE 400 -432 96 -432
WIRE 224 -336 224 -352
WIRE 240 -336 224 -336
WIRE 224 -320 224 -336
WIRE 240 -320 240 -336
WIRE 96 -272 96 -432
WIRE 176 -272 96 -272
WIRE 336 -240 320 -240
WIRE 400 -240 400 -432
WIRE 400 -240 336 -240
WIRE 448 -240 400 -240
WIRE 656 -240 528 -240
WIRE 336 -224 336 -240
WIRE 336 -224 320 -224
WIRE 176 -208 112 -208
WIRE 224 -144 224 -160
WIRE 240 -144 240 -160
WIRE 240 -144 224 -144
WIRE 272 -144 272 -160
WIRE 288 -144 288 -160
WIRE 288 -144 272 -144
WIRE 224 -128 224 -144
WIRE 272 -128 272 -144
WIRE -608 -64 -608 -112
WIRE -464 -64 -464 -112
WIRE 112 -32 112 -208
WIRE 416 -32 112 -32
WIRE -608 48 -608 16
WIRE -464 48 -464 16
WIRE 240 64 240 48
WIRE 256 64 240 64
WIRE 240 80 240 64
WIRE 256 80 256 64
WIRE 112 128 112 -32
WIRE 192 128 112 128
WIRE 352 160 336 160
WIRE 416 160 416 -32
WIRE 416 160 352 160
WIRE 512 160 416 160
WIRE 656 160 656 -240
WIRE 656 160 592 160
WIRE 864 160 656 160
WIRE 960 160 864 160
WIRE 1024 160 960 160
WIRE 352 176 352 160
WIRE 352 176 336 176
WIRE -368 192 -368 160
WIRE 192 192 -368 192
WIRE 656 192 656 160
WIRE 864 192 864 160
WIRE 960 208 960 160
WIRE -368 240 -368 192
WIRE 240 256 240 240
WIRE 256 256 256 240
WIRE 256 256 240 256
WIRE 288 256 288 240
WIRE 304 256 304 240
WIRE 304 256 288 256
WIRE 240 272 240 256
WIRE 288 272 288 256
WIRE 656 304 656 272
WIRE 864 304 864 272
WIRE 960 304 960 272
WIRE -368 352 -368 320
WIRE 656 400 656 368
FLAG 288 272 0
FLAG 240 48 VS+
FLAG 240 272 -VS
FLAG 864 304 0
FLAG 960 304 0
FLAG -464 48 0
FLAG -608 48 0
FLAG -464 -112 VS+
FLAG -608 -112 -VS
FLAG -368 352 0
FLAG -368 160 VIN
FLAG 1024 160 VO
FLAG 656 400 0
FLAG 272 -128 0
FLAG 224 -352 VS+
FLAG 224 -128 -VS
SYMBOL Hab_OpAmp\\OPA549 256 160 R0
SYMATTR InstName U1
SYMBOL res 848 176 R0
SYMATTR InstName R1
SYMATTR Value 3
SYMBOL cap 944 208 R0
SYMATTR InstName C1
SYMATTR Value 100µF
SYMBOL voltage -608 -80 R0
WINDOW 123 0 0 Left 0
WINDOW 39 0 0 Left 0
SYMATTR InstName V1
SYMATTR Value -15V
SYMBOL voltage -464 -80 R0
WINDOW 123 0 0 Left 0
WINDOW 39 0 0 Left 0
SYMATTR InstName V2
SYMATTR Value 15V
SYMBOL voltage -368 224 R0
WINDOW 123 0 0 Left 0
WINDOW 39 0 0 Left 0
SYMATTR InstName V3
SYMATTR Value SINE(10 1 5K .001 0 0 10)
SYMBOL res 640 176 R0
SYMATTR InstName R2
SYMATTR Value 10
SYMBOL cap 640 304 R0
SYMATTR InstName C2
SYMATTR Value .01µF
SYMBOL Hab_OpAmp\\OPA549 240 -240 R0
SYMATTR InstName U2
SYMBOL res 608 144 R90
WINDOW 0 0 56 VBottom 2
WINDOW 3 32 56 VTop 2
SYMATTR InstName R3
SYMATTR Value .1
SYMBOL res 544 -256 R90
WINDOW 0 0 56 VBottom 2
WINDOW 3 32 56 VTop 2
SYMATTR InstName R4
SYMATTR Value .1
TEXT 16 368 Left 2 !.tran .003
