Version 4
SHEET 1 1076 680
WIRE -608 -64 -608 -224
WIRE -464 -64 -464 -224
WIRE 416 -32 112 -32
WIRE -608 48 -608 16
WIRE -464 48 -464 16
WIRE 240 64 240 48
WIRE 256 64 240 64
WIRE 240 80 240 64
WIRE 256 80 256 64
WIRE 112 128 112 -32
WIRE 192 128 112 128
WIRE 352 160 336 160
WIRE 416 160 416 -32
WIRE 416 160 352 160
WIRE 512 160 416 160
WIRE 864 160 592 160
WIRE 960 160 864 160
WIRE 1024 160 960 160
WIRE 352 176 352 160
WIRE 352 176 336 176
WIRE -592 192 -592 160
WIRE 16 192 -592 192
WIRE 192 192 16 192
WIRE 864 192 864 160
WIRE 960 208 960 160
WIRE -592 240 -592 192
WIRE 16 240 16 192
WIRE 240 256 240 240
WIRE 256 256 256 240
WIRE 256 256 240 256
WIRE 288 256 288 240
WIRE 304 256 304 240
WIRE 304 256 288 256
WIRE 240 272 240 256
WIRE 288 272 288 256
WIRE 656 304 656 272
WIRE 864 304 864 272
WIRE 960 304 960 272
WIRE -592 352 -592 320
WIRE 16 352 16 320
WIRE -128 368 -128 320
WIRE 656 400 656 368
FLAG 288 272 0
FLAG 240 48 VS+
FLAG 240 272 -VS
FLAG 864 304 0
FLAG 960 304 0
FLAG -464 48 0
FLAG -608 48 0
FLAG -464 -224 VS+
FLAG -608 -224 -VS
FLAG -592 352 0
FLAG -592 160 VIN
FLAG 1024 160 VO
FLAG 656 400 0
FLAG 16 352 0
FLAG -128 368 0
SYMBOL Hab_OpAmp\\OPA549 256 160 R0
SYMATTR InstName U1
SYMBOL res 848 176 R0
SYMATTR InstName R1
SYMATTR Value 5
SYMBOL cap 944 208 R0
SYMATTR InstName C1
SYMATTR Value 300µF
SYMBOL voltage -608 -80 R0
WINDOW 123 0 0 Left 0
WINDOW 39 0 0 Left 0
SYMATTR InstName V1
SYMATTR Value -15V
SYMBOL voltage -464 -80 R0
WINDOW 123 0 0 Left 0
WINDOW 39 0 0 Left 0
SYMATTR InstName V2
SYMATTR Value 15V
SYMBOL voltage -592 224 R0
WINDOW 123 0 0 Left 0
WINDOW 39 0 0 Left 0
SYMATTR InstName V3
SYMATTR Value SINE(9.5 .5 800 .001 0 0 10)
SYMBOL res 640 176 R0
SYMATTR InstName R2
SYMATTR Value 10
SYMBOL cap 640 304 R0
SYMATTR InstName C2
SYMATTR Value .01µF
SYMBOL res 608 144 R90
WINDOW 0 0 56 VBottom 2
WINDOW 3 32 56 VTop 2
SYMATTR InstName R3
SYMATTR Value .0065
SYMBOL res 0 224 R0
SYMATTR InstName R7
SYMATTR Value 10K
SYMBOL voltage -128 224 R0
WINDOW 123 0 0 Left 0
WINDOW 39 0 0 Left 0
SYMATTR InstName V4
SYMATTR Value 10
TEXT -560 368 Left 2 !.tran .003
