Version 4
SHEET 1 880 876
WIRE -32 -64 -32 -96
WIRE 128 -64 128 -96
WIRE -32 64 -32 16
WIRE 128 64 128 16
WIRE 320 64 320 16
WIRE -32 160 -32 144
WIRE 128 160 128 144
WIRE 320 160 320 144
WIRE 432 160 320 160
WIRE 320 176 320 160
WIRE 256 224 176 224
WIRE 320 320 320 272
WIRE -48 400 -48 368
WIRE 32 400 -48 400
WIRE 176 400 176 224
WIRE 176 400 112 400
WIRE -48 432 -48 400
WIRE -48 544 -48 512
WIRE 320 544 320 512
WIRE 176 592 176 400
WIRE 256 592 176 592
WIRE 320 656 320 640
WIRE 432 656 320 656
WIRE 320 672 320 656
WIRE 320 768 320 752
FLAG -32 160 0
FLAG 128 160 0
FLAG -32 -96 VCC
FLAG 128 -96 VEE
FLAG 320 16 VCC
FLAG 320 320 VEE
FLAG 320 768 VEE
FLAG 320 512 VCC
FLAG 432 160 V1
FLAG 432 656 V2
FLAG -48 544 0
FLAG -48 368 Vin
SYMBOL voltage -32 48 R0
WINDOW 123 0 0 Left 0
WINDOW 39 0 0 Left 0
SYMATTR InstName V1
SYMATTR Value 20
SYMBOL voltage 128 160 R180
WINDOW 0 24 96 Left 2
WINDOW 3 24 16 Left 2
WINDOW 123 0 0 Left 0
WINDOW 39 0 0 Left 0
SYMATTR InstName V2
SYMATTR Value 20
SYMBOL pnp 256 272 M180
SYMATTR InstName Q1
SYMATTR Value SST4403
SYMBOL res 304 48 R0
SYMATTR InstName R1
SYMATTR Value 200
SYMBOL npn 256 544 R0
SYMATTR InstName Q2
SYMATTR Value ZXTN07045EFF
SYMBOL res 304 656 R0
SYMATTR InstName R2
SYMATTR Value 510
SYMBOL voltage -48 416 R0
WINDOW 123 0 0 Left 0
WINDOW 39 0 0 Left 0
SYMATTR InstName V3
SYMATTR Value 2.5
SYMBOL res 128 384 R90
WINDOW 0 0 56 VBottom 2
WINDOW 3 32 56 VTop 2
SYMATTR InstName R3
SYMATTR Value .001
SYMBOL res 112 -80 R0
SYMATTR InstName R4
SYMATTR Value .001
SYMBOL res -48 -80 R0
SYMATTR InstName R5
SYMATTR Value .001
TEXT -82 588 Left 2 !.tran 1
