Version 4
SHEET 1 880 680
WIRE 144 32 -16 32
WIRE -16 96 -16 32
WIRE 144 96 144 32
WIRE 144 192 144 176
WIRE 256 192 144 192
WIRE 304 192 256 192
WIRE -16 208 -16 176
WIRE -16 224 -16 208
WIRE 144 224 144 192
WIRE 256 224 256 192
WIRE 144 352 144 304
WIRE 256 352 256 288
FLAG 256 352 0
FLAG 144 352 0
FLAG -16 208 0
FLAG 304 192 Vo
SYMBOL res 128 80 R0
SYMATTR InstName R1
SYMATTR Value 10K
SYMBOL res 128 208 R0
SYMATTR InstName R2
SYMATTR Value 1.24K
SYMBOL voltage -16 80 R0
WINDOW 123 0 0 Left 0
WINDOW 39 0 0 Left 0
SYMATTR InstName V1
SYMATTR Value 20
SYMBOL Hab_Zener\\MMSZ5226BS 240 288 M180
WINDOW 0 24 64 Left 2
WINDOW 3 24 0 Left 2
SYMATTR InstName U3
TEXT -50 376 Left 2 !.tran 1
