Version 4
SHEET 1 3044 1336
WIRE 80 -128 80 -160
WIRE 192 -128 80 -128
WIRE 1648 -128 1648 -240
WIRE 1984 -128 1648 -128
WIRE 80 -96 80 -128
WIRE 640 -32 640 -240
WIRE 640 -32 512 -32
WIRE 1152 -32 1152 -240
WIRE 1152 -32 1024 -32
WIRE 1648 -32 1648 -128
WIRE 1648 -32 1520 -32
WIRE 80 16 80 -16
WIRE 384 16 80 16
WIRE 448 16 384 16
WIRE 640 16 640 -32
WIRE 960 16 928 16
WIRE 1152 16 1152 -32
WIRE 1456 16 1424 16
WIRE 1648 16 1648 -32
WIRE -432 32 -432 0
WIRE -320 32 -320 0
WIRE 80 32 80 16
WIRE 576 64 512 64
WIRE 1088 64 1024 64
WIRE 1584 64 1520 64
WIRE 16 80 -32 80
WIRE -432 128 -432 112
WIRE -320 128 -320 112
WIRE 640 176 640 112
WIRE 1152 176 1152 112
WIRE 1648 176 1648 112
WIRE 1984 192 1984 -128
WIRE -192 240 -192 192
WIRE -176 240 -192 240
WIRE -160 240 -160 192
WIRE -432 256 -464 256
WIRE -208 256 -432 256
WIRE -112 272 -144 272
WIRE -32 272 -32 80
WIRE -32 272 -112 272
WIRE 80 272 80 128
WIRE 192 272 192 -128
WIRE -208 288 -256 288
WIRE -176 304 -192 304
WIRE 640 304 640 256
WIRE 1152 304 1152 256
WIRE 1152 304 640 304
WIRE 1648 304 1648 256
WIRE 1648 304 1152 304
WIRE 1984 304 1984 256
WIRE 1984 304 1648 304
WIRE 2192 304 1984 304
WIRE 2288 304 2192 304
WIRE 2336 304 2288 304
WIRE 2192 336 2192 304
WIRE -192 352 -192 304
WIRE 640 352 640 304
WIRE 1152 352 1152 304
WIRE 1648 352 1648 304
WIRE 1984 352 1984 304
WIRE 2288 352 2288 304
WIRE -432 384 -432 256
WIRE 80 384 192 272
WIRE 192 384 80 272
WIRE -256 416 -256 288
WIRE -112 416 -112 272
WIRE -112 416 -256 416
WIRE 2192 432 2192 416
WIRE 2288 432 2288 416
WIRE 2288 432 2192 432
WIRE 2288 448 2288 432
WIRE 80 464 80 384
WIRE 640 480 640 432
WIRE 1152 480 1152 432
WIRE 1648 480 1648 432
WIRE -432 496 -432 464
WIRE -32 512 -32 272
WIRE 16 512 -32 512
WIRE 576 528 512 528
WIRE 1088 528 1024 528
WIRE 1584 528 1520 528
WIRE 80 576 80 560
WIRE 400 576 80 576
WIRE 448 576 400 576
WIRE 960 576 928 576
WIRE 1456 576 1424 576
WIRE 80 608 80 576
WIRE 640 624 640 576
WIRE 640 624 512 624
WIRE 1152 624 1152 576
WIRE 1152 624 1024 624
WIRE 1648 624 1648 576
WIRE 1648 624 1520 624
WIRE 80 704 80 688
WIRE 192 704 192 384
WIRE 192 704 80 704
WIRE 1648 720 1648 624
WIRE 1984 720 1984 416
WIRE 1984 720 1648 720
WIRE 80 736 80 704
WIRE 640 800 640 624
WIRE 1152 800 1152 624
WIRE 1648 800 1648 720
FLAG -432 0 VCC
FLAG -320 0 VEE
FLAG -432 128 0
FLAG -320 128 0
FLAG 640 -240 VCC
FLAG 640 800 VEE
FLAG -192 352 VCC
FLAG -192 192 VEE
FLAG -432 496 0
FLAG 2288 448 0
FLAG 2336 304 VO
FLAG -464 256 VIN
FLAG -160 192 VCC
FLAG 80 -160 VCC
FLAG 80 736 VEE
FLAG 1152 -240 VCC
FLAG 1152 800 VEE
FLAG 384 16 VB1
FLAG 400 576 VB2
FLAG 928 16 VB1
FLAG 928 576 VB2
FLAG 1648 -240 VCC
FLAG 1648 800 VEE
FLAG 1424 16 VB1
FLAG 1424 576 VB2
SYMBOL npn 576 16 R0
SYMATTR InstName Q1
SYMATTR Value 2SCR582D3
SYMBOL pnp 576 576 M180
SYMATTR InstName Q2
SYMATTR Value 2SAR582D3
SYMBOL voltage -432 16 R0
WINDOW 123 0 0 Left 0
WINDOW 39 0 0 Left 0
SYMATTR InstName V1
SYMATTR Value 20
SYMBOL voltage -320 16 R0
WINDOW 123 0 0 Left 0
WINDOW 39 0 0 Left 0
SYMATTR InstName V2
SYMATTR Value -20
SYMBOL res 624 160 R0
SYMATTR InstName R3
SYMATTR Value .1
SYMBOL res 624 336 R0
SYMATTR InstName R4
SYMATTR Value .1
SYMBOL OpAmps\\LT1351 -176 272 M180
SYMATTR InstName U3
SYMBOL voltage -432 368 R0
WINDOW 123 24 124 Left 2
WINDOW 39 0 0 Left 0
SYMATTR Value2 AC 15
SYMATTR InstName V3
SYMATTR Value SINE(0 15 4.7K 1m 0 0 10)
SYMBOL res 2176 320 R0
SYMATTR InstName RL
SYMATTR Value 3
SYMBOL cap 2272 352 R0
SYMATTR InstName CL
SYMATTR Value 300µ
SYMBOL pnp 16 128 M180
SYMATTR InstName Q3
SYMATTR Value MMBT4403
SYMBOL res 64 -112 R0
SYMATTR InstName R1
SYMATTR Value 1K
SYMBOL res 64 592 R0
SYMATTR InstName R2
SYMATTR Value 1K
SYMBOL npn 1088 16 R0
SYMATTR InstName Q7
SYMATTR Value 2SCR582D3
SYMBOL pnp 1088 576 M180
SYMATTR InstName Q8
SYMATTR Value 2SAR582D3
SYMBOL res 1136 160 R0
SYMATTR InstName R5
SYMATTR Value .1
SYMBOL res 1136 336 R0
SYMATTR InstName R6
SYMATTR Value .1
SYMBOL npn 1584 16 R0
SYMATTR InstName Q11
SYMATTR Value 2SCR582D3
SYMBOL pnp 1584 576 M180
SYMATTR InstName Q12
SYMATTR Value 2SAR582D3
SYMBOL res 1632 160 R0
SYMATTR InstName R7
SYMATTR Value .1
SYMBOL res 1632 336 R0
SYMATTR InstName R8
SYMATTR Value .1
SYMBOL schottky 2000 256 R180
WINDOW 0 24 64 Left 2
WINDOW 3 24 0 Left 2
SYMATTR InstName D7
SYMATTR Value 1N5817
SYMATTR Description Diode
SYMATTR Type diode
SYMBOL schottky 2000 416 R180
WINDOW 0 24 64 Left 2
WINDOW 3 24 0 Left 2
SYMATTR InstName D8
SYMATTR Value 1N5817
SYMATTR Description Diode
SYMATTR Type diode
SYMBOL npn 16 464 R0
SYMATTR InstName Q15
SYMATTR Value 2N4401
SYMBOL pnp 448 624 M180
SYMATTR InstName Q6
SYMATTR Value MMBT4403
SYMBOL pnp 960 624 M180
SYMATTR InstName Q10
SYMATTR Value MMBT4403
SYMBOL pnp 1456 624 M180
SYMATTR InstName Q14
SYMATTR Value MMBT4403
SYMBOL npn 448 -32 R0
SYMATTR InstName Q5
SYMATTR Value 2N4401
SYMBOL npn 960 -32 R0
SYMATTR InstName Q9
SYMATTR Value 2N4401
SYMBOL npn 1456 -32 R0
SYMATTR InstName Q13
SYMATTR Value 2N4401
TEXT -488 536 Left 2 !.tran 3m
TEXT -432 -128 Left 2 !;ac dec 3m 10 10K
