Version 4
SHEET 1 880 680
WIRE -704 -464 -704 -496
WIRE -608 -464 -704 -464
WIRE -368 -464 -512 -464
WIRE -704 -432 -704 -464
WIRE -368 -368 -368 -464
WIRE -704 -304 -704 -352
WIRE -592 -304 -592 -416
WIRE -592 -304 -704 -304
WIRE -368 -240 -368 -304
WIRE -592 -160 -592 -304
WIRE -192 -128 -192 -288
WIRE -368 -112 -368 -160
WIRE 416 -112 416 -160
WIRE 464 -112 416 -112
WIRE 576 -112 544 -112
WIRE 608 -112 576 -112
WIRE 720 -112 720 -160
WIRE 720 -112 688 -112
WIRE 576 -80 576 -112
WIRE 416 -64 416 -112
WIRE -592 -48 -592 -80
WIRE -192 -32 -192 -64
WIRE -192 -32 -320 -32
WIRE -192 -16 -192 -32
WIRE -368 16 -368 -16
WIRE 416 32 416 16
WIRE 720 32 720 16
WIRE -192 80 -192 64
FLAG 576 -80 0
FLAG 416 32 0
FLAG 720 32 0
FLAG 416 -160 VDD
FLAG 720 -160 VSS
FLAG -704 -496 VDD
FLAG -592 -48 VSS
FLAG -368 16 0
FLAG -192 -288 VDD
FLAG -192 80 0
SYMBOL Hab_Zener\\MMSZ5239BS -208 -64 M180
WINDOW 0 24 64 Left 2
WINDOW 3 24 0 Left 2
SYMATTR InstName U1
SYMBOL Hab_MOSFET_P\\IRLML5103TRPBF -512 -416 M270
SYMATTR InstName U2
SYMBOL voltage 416 -80 R0
WINDOW 123 0 0 Left 0
WINDOW 39 0 0 Left 0
SYMATTR InstName V1
SYMATTR Value 16
SYMBOL voltage 720 -80 R0
WINDOW 123 0 0 Left 0
WINDOW 39 0 0 Left 0
SYMATTR InstName V2
SYMATTR Value -16
SYMBOL res 560 -128 R90
WINDOW 0 0 56 VBottom 2
WINDOW 3 32 56 VTop 2
SYMATTR InstName R1
SYMATTR Value 10K
SYMBOL res 704 -128 R90
WINDOW 0 0 56 VBottom 2
WINDOW 3 32 56 VTop 2
SYMATTR InstName R2
SYMATTR Value 10K
SYMBOL res -384 -256 R0
SYMATTR InstName R4
SYMATTR Value 3K
SYMBOL LED -384 -368 R0
SYMATTR InstName D1
SYMBOL nmos -320 -112 M0
SYMATTR InstName M1
SYMATTR Value 2N7002
SYMBOL res -208 -32 R0
SYMATTR InstName R6
SYMATTR Value 10K
SYMBOL res -720 -448 R0
SYMATTR InstName R3
SYMATTR Value 1K
SYMBOL res -608 -176 R0
SYMATTR InstName R5
SYMATTR Value 8K
SYMBOL Hab_Zener\\BZX84C3V6W-7-F 0 -240 M180
WINDOW 0 24 64 Left 2
WINDOW 3 24 0 Left 2
SYMATTR InstName U3
TEXT -818 104 Left 2 !.tran 1
