Version 4
SHEET 1 1108 740
WIRE 400 -80 400 -112
WIRE 0 112 -32 112
WIRE 176 112 80 112
WIRE 400 112 400 0
WIRE 176 160 176 112
WIRE 336 160 176 160
WIRE -192 240 -192 192
WIRE -176 240 -192 240
WIRE -160 240 -160 192
WIRE -432 256 -464 256
WIRE -208 256 -432 256
WIRE -32 272 -32 112
WIRE -32 272 -144 272
WIRE 400 272 400 208
WIRE 720 272 400 272
WIRE 832 272 720 272
WIRE 928 272 832 272
WIRE 976 272 928 272
WIRE -208 288 -256 288
WIRE -432 304 -432 256
WIRE -176 304 -192 304
WIRE 832 304 832 272
WIRE 928 320 928 272
WIRE 400 336 400 272
WIRE -192 352 -192 304
WIRE 336 384 176 384
WIRE 832 400 832 384
WIRE 928 400 928 384
WIRE 928 400 832 400
WIRE -912 416 -912 384
WIRE -800 416 -800 384
WIRE -432 416 -432 384
WIRE 928 416 928 400
WIRE -32 432 -32 272
WIRE 0 432 -32 432
WIRE 176 432 176 384
WIRE 176 432 80 432
WIRE -912 512 -912 496
WIRE -800 512 -800 496
WIRE 400 528 400 432
WIRE 400 640 400 608
WIRE -256 736 -256 288
WIRE 720 736 720 272
WIRE 720 736 -256 736
FLAG -912 384 VCC
FLAG -800 384 VEE
FLAG -912 512 0
FLAG -800 512 0
FLAG 400 -112 VCC
FLAG 400 640 VEE
FLAG -192 352 VCC
FLAG -192 192 VEE
FLAG -432 416 0
FLAG 928 416 0
FLAG 976 272 VO
FLAG -464 256 VIN
FLAG -160 192 VCC
SYMBOL Comparators\\LT1716 -1008 192 M180
SYMATTR InstName U2
SYMBOL npn 336 112 R0
SYMATTR InstName Q1
SYMATTR Value 2SCR542P
SYMBOL pnp 336 432 M180
SYMATTR InstName Q2
SYMATTR Value 2SAR542P
SYMBOL voltage -912 400 R0
WINDOW 123 0 0 Left 0
WINDOW 39 0 0 Left 0
SYMATTR InstName V1
SYMATTR Value 20
SYMBOL voltage -800 400 R0
WINDOW 123 0 0 Left 0
WINDOW 39 0 0 Left 0
SYMATTR InstName V2
SYMATTR Value -20
SYMBOL res 96 96 R90
WINDOW 0 0 56 VBottom 2
WINDOW 3 32 56 VTop 2
SYMATTR InstName R1
SYMATTR Value 10
SYMBOL res 96 416 R90
WINDOW 0 0 56 VBottom 2
WINDOW 3 32 56 VTop 2
SYMATTR InstName R2
SYMATTR Value 10
SYMBOL res 384 -96 R0
SYMATTR InstName R3
SYMATTR Value .001
SYMBOL res 384 512 R0
SYMATTR InstName R4
SYMATTR Value .001
SYMBOL OpAmps\\LT1351 -176 272 M180
SYMATTR InstName U3
SYMBOL voltage -432 288 R0
WINDOW 123 0 0 Left 0
WINDOW 39 0 0 Left 0
SYMATTR InstName V3
SYMATTR Value SINE(0 15 100e3 0 0 0 5)
SYMBOL res 816 288 R0
SYMATTR InstName RL
SYMATTR Value 3.3
SYMBOL cap 912 320 R0
SYMATTR InstName CL
SYMATTR Value .1µ
TEXT -476 462 Left 2 !.tran 10e-5
