Version 4
SHEET 1 1268 768
WIRE 80 -128 80 -160
WIRE 192 -128 80 -128
WIRE 80 -80 80 -128
WIRE 640 -80 640 -112
WIRE 80 16 80 0
WIRE 272 16 80 16
WIRE 80 32 80 16
WIRE -432 48 -496 48
WIRE 640 64 640 0
WIRE 640 64 512 64
WIRE 816 64 640 64
WIRE 16 80 -32 80
WIRE -496 112 -496 48
WIRE 272 112 272 16
WIRE 448 112 272 112
WIRE 640 112 640 64
WIRE -432 128 -432 48
WIRE 816 128 816 64
WIRE 576 160 512 160
WIRE 80 208 80 128
WIRE 192 208 192 -128
WIRE -192 240 -192 192
WIRE -176 240 -192 240
WIRE -160 240 -160 192
WIRE 640 240 640 208
WIRE 816 240 816 192
WIRE 816 240 640 240
WIRE -432 256 -432 192
WIRE -432 256 -656 256
WIRE -208 256 -432 256
WIRE 192 256 80 208
WIRE -64 272 -144 272
WIRE -32 272 -32 80
WIRE -32 272 -64 272
WIRE 80 272 192 208
WIRE 640 272 640 240
WIRE 1072 272 640 272
WIRE 1168 272 1072 272
WIRE 1216 272 1168 272
WIRE -208 288 -256 288
WIRE -176 304 -192 304
WIRE 1072 304 1072 272
WIRE 640 320 640 272
WIRE 816 320 640 320
WIRE 1168 320 1168 272
WIRE -432 336 -432 256
WIRE 640 336 640 320
WIRE -192 352 -192 304
WIRE 80 384 80 272
WIRE 576 384 512 384
WIRE 816 384 816 320
WIRE 1072 400 1072 384
WIRE 1168 400 1168 384
WIRE 1168 400 1072 400
WIRE -912 416 -912 384
WIRE -800 416 -800 384
WIRE 1168 416 1168 400
WIRE -32 432 -32 272
WIRE 16 432 -32 432
WIRE 448 432 272 432
WIRE -592 448 -592 384
WIRE -432 448 -432 416
WIRE 640 480 640 432
WIRE 640 480 512 480
WIRE 816 480 816 448
WIRE 816 480 640 480
WIRE 80 496 80 480
WIRE 272 496 272 432
WIRE 272 496 80 496
WIRE -912 512 -912 496
WIRE -800 512 -800 496
WIRE 80 512 80 496
WIRE 640 528 640 480
WIRE 80 640 80 592
WIRE 192 640 192 256
WIRE 192 640 80 640
WIRE 640 640 640 608
WIRE 80 672 80 640
WIRE -256 736 -256 288
WIRE -64 736 -64 272
WIRE -64 736 -256 736
FLAG -912 384 VCC
FLAG -800 384 VEE
FLAG -912 512 0
FLAG -800 512 0
FLAG 640 -112 VCC
FLAG 640 640 VEE
FLAG -192 352 VCC
FLAG -192 192 VEE
FLAG -432 448 0
FLAG 1168 416 0
FLAG 1216 272 VO
FLAG -656 256 VIN
FLAG -160 192 VCC
FLAG 80 -160 VCC
FLAG 80 672 VEE
FLAG -496 112 0
FLAG -592 448 0
SYMBOL npn 576 112 R0
SYMATTR InstName Q1
SYMATTR Value 2SCR542P
SYMBOL pnp 576 432 M180
SYMATTR InstName Q2
SYMATTR Value 2SAR542P
SYMBOL voltage -912 400 R0
WINDOW 123 0 0 Left 0
WINDOW 39 0 0 Left 0
SYMATTR InstName V1
SYMATTR Value 20
SYMBOL voltage -800 400 R0
WINDOW 123 0 0 Left 0
WINDOW 39 0 0 Left 0
SYMATTR InstName V2
SYMATTR Value -20
SYMBOL res 624 -96 R0
SYMATTR InstName R3
SYMATTR Value .01
SYMBOL res 624 512 R0
SYMATTR InstName R4
SYMATTR Value .01
SYMBOL OpAmps\\LT1351 -176 272 M180
SYMATTR InstName U3
SYMBOL voltage -432 320 R0
WINDOW 123 0 0 Left 0
WINDOW 39 0 0 Left 0
SYMATTR InstName V3
SYMATTR Value SINE(0 15 1e3 0 0 0 5)
SYMBOL res 1056 288 R0
SYMATTR InstName RL
SYMATTR Value 3.3
SYMBOL cap 1152 320 R0
SYMATTR InstName CL
SYMATTR Value 100µ
SYMBOL pnp 16 128 M180
SYMATTR InstName Q3
SYMATTR Value 2N2907
SYMBOL npn 16 384 R0
SYMATTR InstName Q4
SYMATTR Value 2N3904
SYMBOL res 64 -96 R0
SYMATTR InstName R1
SYMATTR Value 5K
SYMBOL res 64 496 R0
SYMATTR InstName R2
SYMATTR Value 5K
SYMBOL npn 448 64 R0
SYMATTR InstName Q5
SYMATTR Value 2N3904
SYMBOL pnp 448 480 M180
SYMATTR InstName Q6
SYMATTR Value 2N2907
SYMBOL schottky 832 192 R180
WINDOW 0 24 64 Left 2
WINDOW 3 24 0 Left 2
SYMATTR InstName D1
SYMATTR Value 1N5817
SYMATTR Description Diode
SYMATTR Type diode
SYMBOL schottky 832 448 R180
WINDOW 0 24 64 Left 2
WINDOW 3 24 0 Left 2
SYMATTR InstName D2
SYMATTR Value 1N5817
SYMATTR Description Diode
SYMATTR Type diode
SYMBOL cap -448 128 R0
SYMATTR InstName C1
SYMATTR Value 10µ
SYMBOL voltage -592 288 R0
WINDOW 123 0 0 Left 0
WINDOW 39 0 0 Left 0
SYMATTR InstName V4
SYMATTR Value 15
TEXT -488 536 Left 2 !.tran 1e-3
