Version 4
SHEET 1 2004 1576
WIRE -800 464 -928 464
WIRE -624 464 -800 464
WIRE -928 496 -928 464
WIRE -928 592 -928 576
WIRE -800 608 -800 464
WIRE -624 608 -624 464
WIRE -800 720 -800 688
WIRE -560 720 -800 720
WIRE -624 752 -624 672
WIRE -800 768 -800 720
WIRE -800 880 -800 848
WIRE -624 880 -624 816
WIRE -480 1024 -480 992
WIRE -320 1024 -320 992
WIRE -816 1120 -944 1120
WIRE -480 1136 -480 1104
WIRE -320 1136 -320 1104
WIRE -944 1152 -944 1120
WIRE -448 1216 -480 1216
WIRE -272 1216 -368 1216
WIRE -944 1248 -944 1232
WIRE -816 1264 -816 1120
WIRE -416 1360 -416 1344
WIRE -816 1376 -816 1344
WIRE -816 1376 -1088 1376
WIRE -576 1376 -816 1376
WIRE -480 1376 -480 1216
WIRE -480 1376 -496 1376
WIRE -448 1376 -480 1376
WIRE -272 1392 -272 1216
WIRE -272 1392 -384 1392
WIRE -144 1392 -272 1392
WIRE -112 1392 -144 1392
WIRE -448 1408 -512 1408
WIRE -1088 1424 -1088 1376
WIRE -816 1424 -816 1376
WIRE -512 1424 -512 1408
WIRE -416 1440 -416 1424
WIRE -144 1440 -144 1392
WIRE -1088 1520 -1088 1488
WIRE -512 1520 -512 1504
WIRE -816 1536 -816 1504
WIRE -144 1536 -144 1504
FLAG -480 1136 0
FLAG -320 1136 0
FLAG -816 1536 0
FLAG -944 1248 0
FLAG -480 992 VCC
FLAG -416 1344 VCC
FLAG -320 992 VDD
FLAG -416 1440 VDD
FLAG -512 1520 0
FLAG -112 1392 VO-
FLAG -800 880 0
FLAG -928 592 0
FLAG -560 720 VO+
FLAG -1088 1520 0
FLAG -144 1536 0
FLAG -624 880 0
SYMBOL Hab_OpAmp\\TLV9351 -416 1328 R0
SYMATTR InstName U6
SYMBOL voltage -480 1008 R0
WINDOW 123 0 0 Left 0
WINDOW 39 0 0 Left 0
SYMATTR InstName V3
SYMATTR Value 20V
SYMBOL voltage -320 1008 R0
WINDOW 123 0 0 Left 0
WINDOW 39 0 0 Left 0
SYMATTR InstName V4
SYMATTR Value -20V
SYMBOL res -832 1248 R0
SYMATTR InstName R7
SYMATTR Value 10K
SYMBOL res -832 1408 R0
SYMATTR InstName R8
SYMATTR Value 1.236K
SYMBOL res -528 1408 R0
SYMATTR InstName R9
SYMATTR Value 10K
SYMBOL res -480 1360 R90
WINDOW 0 0 56 VBottom 2
WINDOW 3 32 56 VTop 2
SYMATTR InstName R10
SYMATTR Value 1K
SYMBOL res -352 1200 R90
WINDOW 0 0 56 VBottom 2
WINDOW 3 32 56 VTop 2
SYMATTR InstName R11
SYMATTR Value 2.1K
SYMBOL voltage -944 1136 R0
WINDOW 123 0 0 Left 0
WINDOW 39 0 0 Left 0
SYMATTR InstName V5
SYMATTR Value -30V
SYMBOL res -816 592 R0
SYMATTR InstName R1
SYMATTR Value 10K
SYMBOL res -816 752 R0
SYMATTR InstName R2
SYMATTR Value 1.236K
SYMBOL voltage -928 480 R0
WINDOW 123 0 0 Left 0
WINDOW 39 0 0 Left 0
SYMATTR InstName V1
SYMATTR Value 30V
SYMBOL Hab_Zener\\BZT52C2V0S -1104 1424 R0
SYMATTR InstName U1
SYMBOL diode -128 1504 R180
WINDOW 0 24 64 Left 2
WINDOW 3 24 0 Left 2
SYMATTR InstName D1
SYMATTR Value 1N4148
SYMBOL diode -608 672 R180
WINDOW 0 24 64 Left 2
WINDOW 3 24 0 Left 2
SYMATTR InstName D2
SYMATTR Value 1N4148
SYMBOL Hab_Zener\\BZX84C3V6W-7-F -640 816 M180
WINDOW 0 24 64 Left 2
WINDOW 3 24 0 Left 2
SYMATTR InstName U2
TEXT -978 1560 Left 2 !.tran .1
TEXT -352 712 Left 2 ;Creates a ration of 0.110 of input voltage - Max allowable +input of 30V to max output of 3.3V
TEXT 0 1376 Left 2 ;Creates a ration of -0.110 of input voltage - Max allowable -input of -30V to max output of +3.3V\nSupply rails +/-20V\nSee notes on circuit calculation
